src/test/resources/ieeefiles/ahxx201309251500.txt
 27/07/13 ZJU RDS              100.0  2013 8         Anhuisheng Test Case
BUS DATA FOLLOWS                    9567 ITEMS
   1 皖洛河_62 1   1  2 .98000  .0000   35.500  16.6900  607.000  .00000  20.000 .98000 300.000 40.0000  .00000  .00000 0   
   2 皖洛河_52 1   1  2 .98000  .0000   35.500  16.6900  588.700  .00000  20.000 .98000 160.000 40.0000  .00000  .00000 0   
   3 皖平圩_42 1   1  2 .98000  .0000   33.160  15.5900  603.900  .00000  20.000 .98000 315.000 .000000  .00000  .00000 0   
   4 华琅琊_11 1   1  2 .98000  .0000   .00000  .000000  148.700  .00000  15.700 .98000 10.0000 -10.000  .00000  .00000 0   
   5 华袁庄_12 1   1  2 .98000  .0000   22.820  10.7300  581.300  .00000  20.000 .98000 160.000 .000000  .00000  .00000 0   
   6 华袁庄_22 1   1  2 .98000  .0000   21.040  9.88800  602.100  .00000  20.000 .98000 160.000 .000000  .00000  .00000 0   
   7 华宿州_12 1   1  2 .98000  .0000   30.380  14.2800  620.100  .00000  20.000 .98000 315.000 50.0000  .00000  .00000 0   
   8 华宿州_22 1   1  2 .98000  .0000   25.450  11.9600  545.100  .00000  20.000 .98000 315.000 50.0000  .00000  .00000 0   
   9 华凤台_12 1   1  2 .98000  .0000   22.220  10.4400  542.000  .00000  20.000 .98000 160.000 50.0000  .00000  .00000 0   
  10 华凤台_22 1   1  2 .98000  .0000   29.990  14.0900  590.200  .00000  20.000 .98000 160.000 50.0000  .00000  .00000 0   
  11 华龙子_12 1   1  2 .98000  .0000   28.340  13.3200  589.200  .00000  20.000 .98000 300.000 50.0000  .00000  .00000 0   
  12 华龙子_22 1   1  2 .98000  .0000   29.770  13.9900  588.200  .00000  20.000 .98000 300.000 50.0000  .00000  .00000 0   
  13 皖淮北_81 1   1  2 .98000  .0000   11.960  5.62100  155.600  .00000  15.700 .98000 110.000 10.0000  .00000  .00000 0   
  14 皖虎山_12 1   1  2 .98000  .0000   35.610  16.7400  658.000  .00000  20.000 .98000 250.000 .000000  .00000  .00000 0   
  15 皖临涣_22 1   1  2 .98000  .0000   18.000  8.46100  202.600  .00000  20.000 .98000 160.000 .000000  .00000  .00000 0   
  16 皖临涣_32 1   1  2 .98000  .0000   15.050  7.07500  206.900  .00000  20.000 .98000 160.000 .000000  .00000  .00000 0   
  17 皖汇源_52 1   1  2 .98000  .0000   8.8410  4.15500  203.000  .00000  20.000 .98000 75.0000 .000000  .00000  .00000 0   
  18 皖汇源_62 1   1  2 .98000  .0000   14.380  6.76000  259.800  .00000  20.000 .98000 75.0000 .000000  .00000  .00000 0   
  19 皖汇源_41 1   1  2 .98000  .0000   11.270  5.29900  90.8400  .00000  13.800 .98000 75.0000 .000000  .00000  .00000 0   
  20 皖阜润_22 1   1  2 .98000  .0000   21.510  10.1100  413.200  .00000  22.000 .98000 300.000 .000000  .00000  .00000 0   
  21 皖阜润_12 1   1  2 .98000  .0000   23.550  11.0700  415.900  .00000  22.000 .98000 300.000 50.0000  .00000  .00000 0   
  22 皖曹店G03 1   1  2 .98000  .0000   .00000  .000000  .074600  .00000  37.000 .98000 22.5000 .000000  .00000  .00000 0   
  23 皖曹店G13 1   1  2 .98000  .0000   .00000  .000000  .980500  .00000  37.000 .98000 27.0000 .000000  .00000  .00000 0   
  24 皖曹店G23 1   1  2 .98000  .0000   .00000  .000000  3.11200  .00000  37.000 .98000 24.0000 .000000  .00000  .00000 0   
  25 皖曹店G33 1   1  2 .98000  .0000   .00000  .000000  2.98400  .00000  37.000 .98000 25.5000 .000000  .00000  .00000 0   
  26 皖万寿G03 1   1  2 .98000  .0000   .00000  .000000  6.84200  .00000  37.000 .98000 15.0000 .000000  .00000  .00000 0   
  27 皖万寿G13 1   1  2 .98000  .0000   .00000  .000000  6.37300  .00000  37.000 .98000 15.0000 .000000  .00000  .00000 0   
  28 皖来安G13 1   1  2 .98000  .0000   .00000  .000000  .966500  .00000  37.000 .98000 13.5000 .000000  .00000  .00000 0   
  29 皖来安G23 1   1  2 .98000  .0000   .00000  .000000  .917200  .00000  37.000 .98000 15.0000 .000000  .00000  .00000 0   
  30 皖来安G33 1   1  2 .98000  .0000   .00000  .000000  .823500  .00000  37.000 .98000 15.0000 .000000  .00000  .00000 0   
  31 皖来安G43 1   1  2 .98000  .0000   .00000  .000000  .784000  .00000  37.000 .98000 15.0000 .000000  .00000  .00000 0   
  32 皖来安G53 1   1  2 .98000  .0000   .00000  .000000  .572000  .00000  37.000 .98000 15.0000 .000000  .00000  .00000 0   
  33 皖来安G63 1   1  2 .98000  .0000   .00000  .000000  .808700  .00000  37.000 .98000 15.0000 .000000  .00000  .00000 0   
  34 皖来安G73 1   1  2 .98000  .0000   .00000  .000000  .000000  .00000  37.000 .98000 15.0000 .000000  .00000  .00000 0   
  35 皖来安G83 1   1  2 .98000  .0000   .00000  .000000  .000000  .00000  37.000 .98000 15.0000 .000000  .00000  .00000 0   
  36 皖来安G93 1   1  2 .98000  .0000   .00000  .000000  .000000  .00000  37.000 .98000 15.0000 .000000  .00000  .00000 0   
  37 皖来安GA3 1   1  2 .98000  .0000   .00000  .000000  .695300  .00000  37.000 .98000 15.0000 .000000  .00000  .00000 0   
  38 皖来安GB3 1   1  2 .98000  .0000   .00000  .000000  .527600  .00000  37.000 .98000 15.0000 .000000  .00000  .00000 0   
  39 皖来安GC3 1   1  2 .98000  .0000   .00000  .000000  1.00600  .00000  37.000 .98000 15.0000 .000000  .00000  .00000 0   
  40 皖来安GD3 1   1  2 .98000  .0000   .00000  .000000  4.86700  .00000  37.000 .98000 15.0000 .000000  .00000  .00000 0   
  41 皖来安GE3 1   1  2 .98000  .0000   .00000  .000000  4.86700  .00000  37.000 .98000 15.0000 .000000  .00000  .00000 0   
  42 皖来安GF3 1   1  2 .98000  .0000   .00000  .000000  4.86700  .00000  37.000 .98000 15.0000 .000000  .00000  .00000 0   
  43 皖钱甸_21 1   1  2 .98000  .0000   6.5830  3.09400  83.3300  .00000  13.800 .98000 55.0000 .000000  .00000  .00000 0   
  44 皖滨淮_21 1   1  2 .98000  .0000   7.8790  3.70300  103.500  .00000  13.800 .98000 60.0000 .000000  .00000  .00000 0   
  45 皖洛河_21 1   1  2 .98000  .0000   15.150  7.12100  179.300  .00000  18.000 .98000 160.000 40.0000  .00000  .00000 0   
  46 皖洛河_11 1   1  2 .98000  .0000   13.830  6.49800  251.100  .00000  18.000 .98000 55.0000 40.0000  .00000  .00000 0   
  47 皖炉桥_12 1   1  2 .98000  .0000   9.1490  4.30000  160.000  .00000  20.000 .98000 160.000 .000000  .00000  .00000 0   
  48 皖炉桥_22 1   1  2 .98000  .0000   9.9100  4.65800  199.300  .00000  20.000 .98000 160.000 .000000  .00000  .00000 0   
  49 皖平圩_22 1   1  2 .98000  .0000   20.430  9.60300  408.700  .00000  20.000 .98000 315.000 40.0000  .00000  .00000 0   
  50 皖顾桥#22 1   1  2 .98000  .0000   8.0080  3.76400  196.200  .00000  20.000 .98000 160.000 .000000  .00000  .00000 0   
  51 皖顾桥#12 1   1  2 .98000  .0000   11.010  5.17300  184.700  .00000  20.000 .98000 160.000 .000000  .00000  .00000 0   
  52 皖田厂_62 1   1  2 .98000  .0000   18.090  8.50200  220.700  .00000  20.000 .98000 160.000 20.0000  .00000  .00000 0   
  53 皖居巢_12 1   1  2 .98000  .0000   25.940  12.1900  449.800  .00000  20.000 .98000 160.000 .000000  .00000  .00000 0   
  54 皖合厂_62 1   1  2 .98000  .0000   30.690  14.4300  602.100  .00000  20.000 .98000 75.0000 .000000  .00000  .00000 0   
  55 皖合二_12 1   1  2 .98000  .0000   10.170  4.78200  206.200  .00000  20.000 .98000 175.000 .000000  .00000  .00000 0   
  56 皖合二_22 1   1  2 .98000  .0000   14.050  6.60200  189.000  .00000  20.000 .98000 175.000 .000000  .00000  .00000 0   
  57 皖响蓄_51 1   1  2 .98000  .0000   -.0010  -.00000  .000000  .00000  10.500 .98000 25.0000 12.0000  .00000  .00000 0   
  58 皖响蓄_61 1   1  2 .98000  .0000   -.0010  -.00000  .000000  .00000  10.500 .98000 25.0000 12.0000  .00000  .00000 0   
  59 皖华六_21 1   1  2 .98000  .0000   9.1540  4.30200  84.6500  .00000  13.800 .98000 62.5000 .000000  .00000  .00000 0   
  60 皖安厂_12 1   1  2 .98000  .0000   11.820  5.55700  260.300  .00000  20.000 .98000 160.000 .000000  .00000  .00000 0   
  61 皖马一_12 1   1  2 .98000  .0000   21.670  10.1800  377.800  .00000  20.000 .98000 70.0000 50.0000  .00000  .00000 0   
  62 皖马一_22 1   1  2 .98000  .0000   17.860  8.39500  385.100  .00000  20.000 .98000 70.0000 50.0000  .00000  .00000 0   
  63 皖新桥_22 1   1  2 .98000  .0000   18.410  8.65200  433.100  .00000  20.000 .98000 300.000 -200.00  .00000  .00000 0   
  64 皖新桥_12 1   1  2 .98000  .0000   -.5780  -.27200  384.700  .00000  20.000 .98000 300.000 -200.00  .00000  .00000 0   
  65 皖马二_22 1   1  2 .98000  .0000   15.720  7.38900  196.500  .00000  20.000 .98000 160.000 20.0000  .00000  .00000 0   
  66 皖马二_12 1   1  2 .98000  .0000   14.280  6.71000  178.400  .00000  20.000 .98000 160.000 20.0000  .00000  .00000 0   
  67 皖马二_32 1   1  2 .98000  .0000   12.820  6.02500  179.100  .00000  20.000 .98000 180.000 -70.000  .00000  .00000 0   
  68 皖马二_42 1   1  2 .98000  .0000   9.5490  4.48800  181.100  .00000  20.000 .98000 180.000 -70.000  .00000  .00000 0   
  69 皖塘岔_D1 1   1  2 .98000  .0000   3.0000  1.41000  48.0000  .00000  10.500 .98000 60.0000 10.0000  .00000  .00000 0   
  70 皖塘岔111 1   1  2 .98000  .0000   4.0000  1.88000  90.0000  .00000  10.500 .98000 60.0000 .000000  .00000  .00000 0   
  71 皖塘岔121 1   1  2 .98000  .0000   8.0000  3.76000  141.000  .00000  10.500 .98000 60.0000 .000000  .00000  .00000 0   
  72 皖团洲_12 1   1  2 .98000  .0000   25.350  11.9100  430.300  .00000  22.000 .98000 315.000 50.0000  .00000  .00000 0   
  73 皖团洲_22 1   1  2 .98000  .0000   20.560  9.66400  387.300  .00000  22.000 .98000 315.000 50.0000  .00000  .00000 0   
  74 皖天门_12 1   1  2 .98000  .0000   26.800  12.6000  400.400  .00000  22.000 .98000 250.000 .000000  .00000  .00000 0   
  75 皖天门_22 1   1  2 .98000  .0000   23.450  11.0200  400.400  .00000  22.000 .98000 250.000 .000000  .00000  .00000 0   
  76 皖永丰_12 1   1  2 .98000  .0000   30.170  14.1800  598.400  .00000  20.000 .98000 300.000 50.0000  .00000  .00000 0   
  77 皖铜陵_42 1   1  2 .98000  .0000   16.700  7.84900  190.200  .00000  20.000 .98000 160.000 20.0000  .00000  .00000 0   
  78 皖铜陵_52 1   1  2 .98000  .0000   34.820  16.3700  819.900  .00000  27.000 .98000 500.000 -200.00  .00000  .00000 0   
  79 皖宣城_12 1   1  2 .98000  .0000   23.500  11.0400  369.600  .00000  20.000 .98000 160.000 50.0000  .00000  .00000 0   
  80 皖陈村_11 1   1  2 .98000  .0000   .00000  .000000  .000000  .00000  15.700 .98000 25.0000 .000000  .00000  .00000 0   
  81 皖九华_12 1   1  2 .98000  .0000   20.030  9.41300  301.100  .00000  20.000 .98000 160.000 20.0000  .00000  .00000 0   
  82 皖李楼Ⅱ 1   1  0 1.0000  .0000   29.140  .000000  .000000  .00000  230.00 1.0000 .000000 .000000  .00000  .00000 0   
  83 皖固镇Ⅱ 1   1  0 1.0000  .0000   12.920  -8.2500  .000000  .00000  230.00 1.0000 .000000 .000000  .00000  .00000 0   
  84 皖华兴Ⅰ 1   1  0 1.0000  .0000   -3.000  .000000  .000000  .00000  230.00 1.0000 .000000 .000000  .00000  .00000 0   
  85 皖华兴Ⅱ 1   1  0 1.0000  .0000   8.1310  .000000  .000000  .00000  230.00 1.0000 .000000 .000000  .00000  .00000 0   
  86 皖腰铺Ⅰ 1   1  0 1.0000  .0000   16.970  -2.7900  .000000  .00000  230.00 1.0000 .000000 .000000  .00000  .00000 0   
  87 皖炉桥Ⅱ 1   1  0 1.0000  .0000   117.90  77.4700  .000000  .00000  230.00 1.0000 .000000 .000000  .00000  .00000 0   
  88 皖炉桥Ⅰ 1   1  0 1.0000  .0000   94.910  66.7200  .000000  .00000  230.00 1.0000 .000000 .000000  .00000  .00000 0   
  89 皖水家012 1   1  0 1.0000  .0000   -1.390  -6.0700  .000000  .00000  230.00 1.0000 .000000 .000000  .00000  .00000 0   
  90 皖鑫晟Ⅱ 1   1  0 1.0000  .0000   33.500  7.23600  .000000  .00000  230.00 1.0000 .000000 .000000  .00000  .00000 0   
  91 皖邵岗012 1   1  0 1.0000  .0000   7.3220  -5.6300  .000000  .00000  230.00 1.0000 .000000 .000000  .00000  .00000 0   
  92 皖崔庄Ⅰ 1   1  0 1.0000  .0000   48.960  12.4300  .000000  .00000  230.00 1.0000 .000000 .000000  .00000  .00000 0   
  93 皖六安Ⅰ 1   1  0 1.0000  .0000   32.030  .268000  .000000  .00000  230.00 1.0000 .000000 .000000  .00000  .00000 0   
  94 皖六安Ⅱ 1   1  0 1.0000  .0000   39.660  16.4800  .000000  .00000  230.00 1.0000 .000000 .000000  .00000  .00000 0   
  95 皖挥手Ⅰ 1   1  0 1.0000  .0000   34.300  4.15400  .000000  .00000  230.00 1.0000 .000000 .000000  .00000  .00000 0   
  96 皖挥手Ⅱ 1   1  0 1.0000  .0000   20.370  -.67000  .000000  .00000  230.00 1.0000 .000000 .000000  .00000  .00000 0   
  97 皖春秋Ⅰ 1   1  0 1.0000  .0000   55.480  -2.4100  .000000  .00000  230.00 1.0000 .000000 .000000  .00000  .00000 0   
  98 皖寿州Ⅱ 1   1  0 1.0000  .0000   16.970  -7.0300  .000000  .00000  230.00 1.0000 .000000 .000000  .00000  .00000 0   
  99 皖寿州Ⅰ 1   1  0 1.0000  .0000   23.900  .000000  .000000  .00000  230.00 1.0000 .000000 .000000  .00000  .00000 0   
 100 皖冯井Ⅱ 1   1  0 1.0000  .0000   39.460  7.29100  .000000  .00000  230.00 1.0000 .000000 .000000  .00000  .00000 0   
 101 皖汪墩Ⅱ 1   1  0 1.0000  .0000   39.170  9.58500  .000000  .00000  230.00 1.0000 .000000 .000000  .00000  .00000 0   
 102 皖蓼城Ⅰ 1   1  0 1.0000  .0000   41.000  11.0000  .000000  .00000  230.00 1.0000 .000000 .000000  .00000  .00000 0   
 103 皖蓼城Ⅱ 1   1  0 1.0000  .0000   15.000  .000000  .000000  .00000  230.00 1.0000 .000000 .000000  .00000  .00000 0   
 104 皖文峰Ⅱ 1   1  0 1.0000  .0000   37.740  11.9200  .000000  .00000  230.00 1.0000 .000000 .000000  .00000  .00000 0   
 105 皖红石Ⅰ 1   1  0 1.0000  .0000   -10.20  8.84700  .000000  .00000  230.00 1.0000 .000000 .000000  .00000  .00000 0   
 106 皖马店012 1   1  0 1.0000  .0000   6.9710  .000000  .000000  .00000  230.00 1.0000 .000000 .000000  .00000  .00000 0   
 107 皖安热Ⅱ 1   1  0 1.0000  .0000   28.580  3.35000  .000000  .00000  230.00 1.0000 .000000 .000000  .00000  .00000 0   
 108 皖泉河1A2 1   1  0 1.0000  .0000   5.4770  .920000  .000000  .00000  230.00 1.0000 .000000 .000000  .00000  .00000 0   
 109 皖围屏Ⅱ 1   1  0 1.0000  .0000   28.360  3.46100  .000000  .00000  230.00 1.0000 .000000 .000000  .00000  .00000 0   
 110 皖围屏Ⅰ 1   1  0 1.0000  .0000   45.770  9.60100  .000000  .00000  230.00 1.0000 .000000 .000000  .00000  .00000 0   
 111 皖荷潭Ⅱ 1   1  0 1.0000  .0000   87.920  23.8600  .000000  .00000  230.00 1.0000 .000000 .000000  .00000  .00000 0   
 112 皖阳湖Ⅰ 1   1  0 1.0000  .0000   44.900  13.4000  .000000  .00000  230.00 1.0000 .000000 .000000  .00000  .00000 0   
 113 皖园水Ⅰ 1   1  0 1.0000  .0000   38.400  8.70800  .000000  .00000  230.00 1.0000 .000000 .000000  .00000  .00000 0   
 114 皖刘村722 1   1  0 1.0000  .0000   62.310  12.1900  .000000  .00000  230.00 1.0000 .000000 .000000  .00000  .00000 0   
 115 皖刘村612 1   1  0 1.0000  .0000   50.510  2.74700  .000000  .00000  230.00 1.0000 .000000 .000000  .00000  .00000 0   
 116 皖采石Ⅱ 1   1  0 1.0000  .0000   35.830  -1.1400  .000000  .00000  230.00 1.0000 .000000 .000000  .00000  .00000 0   
 117 皖采石Ⅰ 1   1  0 1.0000  .0000   46.900  -2.4800  .000000  .00000  230.00 1.0000 .000000 .000000  .00000  .00000 0   
 118 皖长龙Ⅱ 1   1  0 1.0000  .0000   69.370  12.6600  .000000  .00000  230.00 1.0000 .000000 .000000  .00000  .00000 0   
 119 皖长龙Ⅰ 1   1  0 1.0000  .0000   48.750  1.47300  .000000  .00000  230.00 1.0000 .000000 .000000  .00000  .00000 0   
 120 皖高炉Ⅱ 1   1  0 1.0000  .0000   30.060  -5.3600  .000000  .00000  230.00 1.0000 .000000 .000000  .00000  .00000 0   
 121 皖高炉Ⅰ 1   1  0 1.0000  .0000   128.60  16.0800  .000000  .00000  230.00 1.0000 .000000 .000000  .00000  .00000 0   
 122 皖临江Ⅰ 1   1  0 1.0000  .0000   23.040  5.35800  .000000  .00000  230.00 1.0000 .000000 .000000  .00000  .00000 0   
 123 皖临江Ⅱ 1   1  0 1.0000  .0000   34.720  16.1800  .000000  .00000  230.00 1.0000 .000000 .000000  .00000  .00000 0   
 124 皖钢轧Ⅰ 1   1  0 1.0000  .0000   101.80  11.1100  .000000  .00000  230.00 1.0000 .000000 .000000  .00000  .00000 0   
 125 皖钢轧Ⅱ 1   1  0 1.0000  .0000   64.940  14.7200  .000000  .00000  230.00 1.0000 .000000 .000000  .00000  .00000 0   
 126 皖恒兴Ⅰ 1   1  0 1.0000  .0000   94.970  10.7800  .000000  .00000  230.00 1.0000 .000000 .000000  .00000  .00000 0   
 127 皖恒兴2B2 1   1  0 1.0000  .0000   26.860  5.82700  .000000  .00000  230.00 1.0000 .000000 .000000  .00000  .00000 0   
 128 皖香泉Ⅱ 1   1  0 1.0000  .0000   42.780  15.4400  .000000  .00000  230.00 1.0000 .000000 .000000  .00000  .00000 0   
 129 皖香泉Ⅰ 1   1  0 1.0000  .0000   52.270  10.7200  .000000  .00000  230.00 1.0000 .000000 .000000  .00000  .00000 0   
 130 皖含山Ⅰ 1   1  0 1.0000  .0000   108.20  19.9200  .000000  .00000  230.00 1.0000 .000000 .000000  .00000  .00000 0   
 131 皖西梁Ⅱ 1   1  0 1.0000  .0000   33.020  2.88000  .000000  .00000  230.00 1.0000 .000000 .000000  .00000  .00000 0   
 132 皖西梁Ⅰ 1   1  0 1.0000  .0000   26.120  7.50200  .000000  .00000  230.00 1.0000 .000000 .000000  .00000  .00000 0   
 133 皖上湖Ⅱ 1   1  0 1.0000  .0000   35.100  -.60300  .000000  .00000  230.00 1.0000 .000000 .000000  .00000  .00000 0   
 134 皖上湖Ⅰ 1   1  0 1.0000  .0000   69.370  21.1600  .000000  .00000  230.00 1.0000 .000000 .000000  .00000  .00000 0   
 135 皖热轧H12 1   1  0 1.0000  .0000   34.640  5.15900  .000000  .00000  230.00 1.0000 .000000 .000000  .00000  .00000 0   
 136 皖塘岔Ⅱ 1   1  0 1.0000  .0000   56.000  22.0000  .000000  .00000  115.00 1.0000 .000000 .000000  .00000  .00000 0   
 137 皖塘岔Ⅰ 1   1  0 1.0000  .0000   78.000  22.0000  .000000  .00000  115.00 1.0000 .000000 .000000  .00000  .00000 0   
 138 皖苏李Ⅰ 1   1  0 1.0000  .0000   57.110  23.8700  .000000  .00000  230.00 1.0000 .000000 .000000  .00000  .00000 0   
 139 皖章塘Ⅱ 1   1  0 1.0000  .0000   20.790  .000000  .000000  .00000  230.00 1.0000 .000000 .000000  .00000  .00000 0   
 140 皖月桥Ⅰ 1   1  0 1.0000  .0000   115.90  45.3000  .000000  .00000  230.00 1.0000 .000000 .000000  .00000  .00000 0   
 141 皖响水Ⅱ 1   1  0 1.0000  .0000   1.8760  .000000  .000000  .00000  525.00 1.0000 .000000 .000000  .00000  .00000 0   
 142 皖响水Ⅰ 1   1  0 1.0000  .0000   4.0000  -1.2500  .000000  .00000  525.00 1.0000 .000000 .000000  .00000  .00000 0   
 143 皖周冲Ⅱ 1   1  0 1.0000  .0000   59.000  5.00000  .000000  .00000  230.00 1.0000 .000000 .000000  .00000  .00000 0   
 144 皖周冲Ⅰ 1   1  0 1.0000  .0000   67.000  10.0000  .000000  .00000  230.00 1.0000 .000000 .000000  .00000  .00000 0   
 145 皖朱村Ⅱ 1   1  0 1.0000  .0000   44.750  6.56600  .000000  .00000  230.00 1.0000 .000000 .000000  .00000  .00000 0   
 146 皖朱村Ⅰ 1   1  0 1.0000  .0000   51.710  10.2500  .000000  .00000  230.00 1.0000 .000000 .000000  .00000  .00000 0   
 147 皖新江Ⅱ 1   1  0 1.0000  .0000   71.600  18.9400  .000000  .00000  230.00 1.0000 .000000 .000000  .00000  .00000 0   
 148 皖新江Ⅰ 1   1  0 1.0000  .0000   59.760  11.5600  .000000  .00000  230.00 1.0000 .000000 .000000  .00000  .00000 0   
 149 皖古圣Ⅱ 1   1  0 1.0000  .0000   29.140  -5.2900  .000000  .00000  230.00 1.0000 .000000 .000000  .00000  .00000 0   
 150 皖古圣Ⅰ 1   1  0 1.0000  .0000   85.670  14.4000  .000000  .00000  230.00 1.0000 .000000 .000000  .00000  .00000 0   
 151 皖滨江Ⅱ 1   1  0 1.0000  .0000   6.0010  .000000  .000000  .00000  230.00 1.0000 .000000 .000000  .00000  .00000 0   
 152 皖滨江Ⅰ 1   1  0 1.0000  .0000   104.90  23.8600  .000000  .00000  230.00 1.0000 .000000 .000000  .00000  .00000 0   
 153 皖顺安Ⅰ 1   1  0 1.0000  .0000   25.800  6.45100  .000000  .00000  230.00 1.0000 .000000 .000000  .00000  .00000 0   
 154 皖董店Ⅰ 1   1  0 1.0000  .0000   49.000  2.00000  .000000  .00000  230.00 1.0000 .000000 .000000  .00000  .00000 0   
 155 皖陈村Ⅱ 1   1  0 1.0000  .0000   18.430  6.65200  .000000  .00000  115.00 1.0000 .000000 .000000  .00000  .00000 0   
 156 皖东津Ⅰ 1   1  0 1.0000  .0000   40.640  -2.6800  .000000  .00000  230.00 1.0000 .000000 .000000  .00000  .00000 0   
 157 皖琴溪Ⅱ 1   1  0 1.0000  .0000   30.000  4.00000  .000000  .00000  230.00 1.0000 .000000 .000000  .00000  .00000 0   
 158 皖昌明Ⅱ 1   1  0 1.0000  .0000   17.420  2.14400  .000000  .00000  230.00 1.0000 .000000 .000000  .00000  .00000 0   
 159 皖昌明Ⅰ 1   1  0 1.0000  .0000   31.900  4.55700  .000000  .00000  230.00 1.0000 .000000 .000000  .00000  .00000 0   
 160 皖南漪Ⅱ 1   1  0 1.0000  .0000   85.260  14.4700  .000000  .00000  230.00 1.0000 .000000 .000000  .00000  .00000 0   
 161 皖雄路Ⅱ 1   1  0 1.0000  .0000   57.000  10.0000  .000000  .00000  230.00 1.0000 .000000 .000000  .00000  .00000 0   
 162 皖枣园Ⅰ 1   1  0 1.0000  .0000   49.000  7.00000  .000000  .00000  230.00 1.0000 .000000 .000000  .00000  .00000 0   
 163 皖桃州Ⅰ 1   1  0 1.0000  .0000   116.70  .000000  .000000  .00000  230.00 1.0000 .000000 .000000  .00000  .00000 0   
 164 皖宁国Ⅰ 1   1  0 1.0000  .0000   67.000  16.0000  .000000  .00000  230.00 1.0000 .000000 .000000  .00000  .00000 0   
 165 皖宁国Ⅱ 1   1  0 1.0000  .0000   58.000  11.0000  .000000  .00000  230.00 1.0000 .000000 .000000  .00000  .00000 0   
 166 皖莲塘Ⅰ 1   1  0 1.0000  .0000   73.000  22.0000  .000000  .00000  230.00 1.0000 .000000 .000000  .00000  .00000 0   
 167 皖梅丰Ⅱ 1   1  0 1.0000  .0000   53.000  5.70800  .000000  .00000  230.00 1.0000 .000000 .000000  .00000  .00000 0   
 168 皖梅丰1A2 1   1  0 1.0000  .0000   18.060  -14.400  .000000  .00000  230.00 1.0000 .000000 .000000  .00000  .00000 0   
 169 皖凤凰Ⅰ 1   1  0 1.0000  .0000   44.620  19.0100  .000000  .00000  230.00 1.0000 .000000 .000000  .00000  .00000 0   
 170 皖凤凰Ⅱ 1   1  0 1.0000  .0000   39.070  -9.7700  .000000  .00000  230.00 1.0000 .000000 .000000  .00000  .00000 0   
 171 皖池州Ⅱ 1   1  0 1.0000  .0000   21.970  -.67000  .000000  .00000  230.00 1.0000 .000000 .000000  .00000  .00000 0   
 172 皖池州Ⅰ 1   1  0 1.0000  .0000   50.100  .200900  .000000  .00000  230.00 1.0000 .000000 .000000  .00000  .00000 0   
 173 皖蓉城Ⅱ 1   1  0 1.0000  .0000   58.560  9.50000  .000000  .00000  230.00 1.0000 .000000 .000000  .00000  .00000 0   
 174 皖菊江Ⅰ 1   1  0 1.0000  .0000   91.820  10.1900  .000000  .00000  230.00 1.0000 .000000 .000000  .00000  .00000 0   
 175 皖观牛Ⅱ 1   1  0 1.0000  .0000   46.200  -9.2400  .000000  .00000  230.00 1.0000 .000000 .000000  .00000  .00000 0   
 176 皖双龙Ⅱ 1   1  0 1.0000  .0000   41.080  3.93000  .000000  .00000  230.00 1.0000 .000000 .000000  .00000  .00000 0   
 177 皖枫岭Ⅱ 1   1  0 1.0000  .0000   31.730  6.69800  .000000  .00000  230.00 1.0000 .000000 .000000  .00000  .00000 0   
 178 皖灯塔Ⅰ 1   1  0 1.0000  .0000   143.50  41.9700  .000000  .00000  230.00 1.0000 .000000 .000000  .00000  .00000 0   
 179 皖万安Ⅱ 1   1  0 1.0000  .0000   43.300  2.36700  .000000  .00000  230.00 1.0000 .000000 .000000  .00000  .00000 0   
 180 皖万安Ⅰ 1   1  0 1.0000  .0000   43.300  9.88500  .000000  .00000  230.00 1.0000 .000000 .000000  .00000  .00000 0   
 181 皖芳村Ⅱ 1   1  0 1.0000  .0000   31.780  1.58700  .000000  .00000  230.00 1.0000 .000000 .000000  .00000  .00000 0   
 182 皖潜口Ⅱ 1   1  0 1.0000  .0000   68.220  .772600  .000000  .00000  230.00 1.0000 .000000 .000000  .00000  .00000 0   
 183 皖潜口Ⅰ 1   1  0 1.0000  .0000   55.940  2.17900  .000000  .00000  230.00 1.0000 .000000 .000000  .00000  .00000 0   
 184 皖纵楼B22 1   1  0 1.0000  .0000   .00000  .000000  .000000  .00000  230.00 1.0000 .000000 .000000  .00000  .00000 0   
 185 皖纵楼B12 1   1  0 1.0000  .0000   .00000  .000000  .000000  .00000  230.00 1.0000 .000000 .000000  .00000  .00000 0   
 186 皖纵楼Ⅰ 1   1  0 1.0000  .0000   .00000  .000000  .000000  .00000  230.00 1.0000 .000000 .000000  .00000  .00000 0   
 187 皖纵楼Ⅱ 1   1  0 1.0000  .0000   .00000  .000000  .000000  .00000  230.00 1.0000 .000000 .000000  .00000  .00000 0   
 188 皖杨柳B12 1   1  0 1.0000  .0000   .00000  .000000  .000000  .00000  230.00 1.0000 .000000 .000000  .00000  .00000 0   
 189 皖杨柳B22 1   1  0 1.0000  .0000   .00000  .000000  .000000  .00000  230.00 1.0000 .000000 .000000  .00000  .00000 0   
 190 皖杨柳Ⅰ 1   1  0 1.0000  .0000   .00000  .000000  .000000  .00000  230.00 1.0000 .000000 .000000  .00000  .00000 0   
 191 皖杨柳Ⅱ 1   1  0 1.0000  .0000   .00000  .000000  .000000  .00000  230.00 1.0000 .000000 .000000  .00000  .00000 0   
 192 皖淮二Ⅰ 1   1  0 1.0000  .0000   .00000  .000000  .000000  .00000  230.00 1.0000 .000000 .000000  .00000  .00000 0   
 193 皖淮二Ⅱ 1   1  0 1.0000  .0000   .00000  .000000  .000000  .00000  230.00 1.0000 .000000 .000000  .00000  .00000 0   
 194 皖淮北Ⅰ 1   1  0 1.0000  .0000   .00000  .000000  .000000  .00000  230.00 1.0000 .000000 .000000  .00000  .00000 0   
 195 皖淮北PC2 1   1  0 1.0000  .0000   .00000  .000000  .000000  .00000  230.00 1.0000 .000000 .000000  .00000  .00000 0   
 196 皖淮北Ⅱ 1   1  0 1.0000  .0000   .00000  .000000  .000000  .00000  230.00 1.0000 .000000 .000000  .00000  .00000 0   
 197 皖濉溪B12 1   1  0 1.0000  .0000   .00000  .000000  .000000  .00000  230.00 1.0000 .000000 .000000  .00000  .00000 0   
 198 皖濉溪_13 1   1  0 1.0000  .0000   .00000  .000000  .000000  .00000  36.000 1.0000 .000000 .000000  .00000  -2.400 0   
 199 皖濉溪1A2 1   1  0 1.0000  .0000   .00000  .000000  .000000  .00000  230.00 1.0000 .000000 .000000  .00000  .00000 0   
 200 皖濉溪2B2 1   1  0 1.0000  .0000   .00000  .000000  .000000  .00000  230.00 1.0000 .000000 .000000  .00000  .00000 0   
...
-999
BRANCH DATA FOLLOWS                    12959 ITEMS
 186  187 0 1   1 0  .0000000  .0001000   .000000  0     0     0    0    0  .00000  .000   .00000 .000000 .00000 .00000 .000000
 190  191 0 1   1 0  .0000000  .0001000   .000000  0     0     0    0    0  .00000  .000   .00000 .000000 .00000 .00000 .000000
 192  193 0 1   1 0  .0000000  .0001000   .000000  0     0     0    0    0  .00000  .000   .00000 .000000 .00000 .00000 .000000
 194  196 0 1   1 0  .0000000  .0001000   .000000  0     0     0    0    0  .00000  .000   .00000 .000000 .00000 .00000 .000000
 194  195 0 1   1 0  .0000000  .0001000   .000000  0     0     0    0    0  .00000  .000   .00000 .000000 .00000 .00000 .000000
 199  201 0 1   1 0  .0000000  .0001000   .000000  0     0     0    0    0  .00000  .000   .00000 .000000 .00000 .00000 .000000
 199  202 0 1   1 0  .0000000  .0001000   .000000  0     0     0    0    0  .00000  .000   .00000 .000000 .00000 .00000 .000000
 200  202 0 1   1 0  .0000000  .0001000   .000000  0     0     0    0    0  .00000  .000   .00000 .000000 .00000 .00000 .000000
 200  201 0 1   1 0  .0000000  .0001000   .000000  0     0     0    0    0  .00000  .000   .00000 .000000 .00000 .00000 .000000
 204  205 0 1   1 0  .0000000  .0001000   .000000  0     0     0    0    0  .00000  .000   .00000 .000000 .00000 .00000 .000000
 205  203 0 1   1 0  .0000000  .0001000   .000000  0     0     0    0    0  .00000  .000   .00000 .000000 .00000 .00000 .000000
 204  206 0 1   1 0  .0000000  .0001000   .000000  0     0     0    0    0  .00000  .000   .00000 .000000 .00000 .00000 .000000
 206  207 0 1   1 0  .0000000  .0001000   .000000  0     0     0    0    0  .00000  .000   .00000 .000000 .00000 .00000 .000000
 207  203 0 1   1 0  .0000000  .0001000   .000000  0     0     0    0    0  .00000  .000   .00000 .000000 .00000 .00000 .000000
 204  208 0 1   1 0  .0000000  .0001000   .000000  0     0     0    0    0  .00000  .000   .00000 .000000 .00000 .00000 .000000
 208  209 0 1   1 0  .0000000  .0001000   .000000  0     0     0    0    0  .00000  .000   .00000 .000000 .00000 .00000 .000000
 209  203 0 1   1 0  .0000000  .0001000   .000000  0     0     0    0    0  .00000  .000   .00000 .000000 .00000 .00000 .000000
 212  213 0 1   1 0  .0000000  .0001000   .000000  0     0     0    0    0  .00000  .000   .00000 .000000 .00000 .00000 .000000
 214  215 0 1   1 0  .0000000  .0001000   .000000  0     0     0    0    0  .00000  .000   .00000 .000000 .00000 .00000 .000000
 218  219 0 1   1 0  .0000000  .0001000   .000000  0     0     0    0    0  .00000  .000   .00000 .000000 .00000 .00000 .000000
 222  223 0 1   1 0  .0000000  .0001000   .000000  0     0     0    0    0  .00000  .000   .00000 .000000 .00000 .00000 .000000
 224  225 0 1   1 0  .0000000  .0001000   .000000  0     0     0    0    0  .00000  .000   .00000 .000000 .00000 .00000 .000000
 227  228 0 1   1 0  .0000000  .0001000   .000000  0     0     0    0    0  .00000  .000   .00000 .000000 .00000 .00000 .000000
 234  236 0 1   1 0  .0000000  .0001000   .000000  0     0     0    0    0  .00000  .000   .00000 .000000 .00000 .00000 .000000
 233  234 0 1   1 0  .0000000  .0001000   .000000  0     0     0    0    0  .00000  .000   .00000 .000000 .00000 .00000 .000000
 233  235 0 1   1 0  .0000000  .0001000   .000000  0     0     0    0    0  .00000  .000   .00000 .000000 .00000 .00000 .000000
 239  240 0 1   1 0  .0000000  .0001000   .000000  0     0     0    0    0  .00000  .000   .00000 .000000 .00000 .00000 .000000
 242  243 0 1   1 0  .0000000  .0001000   .000000  0     0     0    0    0  .00000  .000   .00000 .000000 .00000 .00000 .000000
 246  247 0 1   1 0  .0000000  .0001000   .000000  0     0     0    0    0  .00000  .000   .00000 .000000 .00000 .00000 .000000
 250  251 0 1   1 0  .0000000  .0001000   .000000  0     0     0    0    0  .00000  .000   .00000 .000000 .00000 .00000 .000000
 253  254 0 1   1 0  .0000000  .0001000   .000000  0     0     0    0    0  .00000  .000   .00000 .000000 .00000 .00000 .000000
 260  261 0 1   1 0  .0000000  .0001000   .000000  0     0     0    0    0  .00000  .000   .00000 .000000 .00000 .00000 .000000
 263  264 0 1   1 0  .0000000  .0001000   .000000  0     0     0    0    0  .00000  .000   .00000 .000000 .00000 .00000 .000000
 267  268 0 1   1 0  .0000000  .0001000   .000000  0     0     0    0    0  .00000  .000   .00000 .000000 .00000 .00000 .000000
 268  269 0 1   1 0  .0000000  .0001000   .000000  0     0     0    0    0  .00000  .000   .00000 .000000 .00000 .00000 .000000
 272  273 0 1   1 0  .0000000  .0001000   .000000  0     0     0    0    0  .00000  .000   .00000 .000000 .00000 .00000 .000000
 279  280 0 1   1 0  .0000000  .0001000   .000000  0     0     0    0    0  .00000  .000   .00000 .000000 .00000 .00000 .000000
 283  284 0 1   1 0  .0000000  .0001000   .000000  0     0     0    0    0  .00000  .000   .00000 .000000 .00000 .00000 .000000
 287  288 0 1   1 0  .0000000  .0001000   .000000  0     0     0    0    0  .00000  .000   .00000 .000000 .00000 .00000 .000000
 293  294 0 1   1 0  .0000000  .0001000   .000000  0     0     0    0    0  .00000  .000   .00000 .000000 .00000 .00000 .000000
 301  304 0 1   1 0  .0000000  .0001000   .000000  0     0     0    0    0  .00000  .000   .00000 .000000 .00000 .00000 .000000
 302  304 0 1   1 0  .0000000  .0001000   .000000  0     0     0    0    0  .00000  .000   .00000 .000000 .00000 .00000 .000000
 301  303 0 1   1 0  .0000000  .0001000   .000000  0     0     0    0    0  .00000  .000   .00000 .000000 .00000 .00000 .000000
 302  303 0 1   1 0  .0000000  .0001000   .000000  0     0     0    0    0  .00000  .000   .00000 .000000 .00000 .00000 .000000
 306  307 0 1   1 0  .0000000  .0001000   .000000  0     0     0    0    0  .00000  .000   .00000 .000000 .00000 .00000 .000000
 307  305 0 1   1 0  .0000000  .0001000   .000000  0     0     0    0    0  .00000  .000   .00000 .000000 .00000 .00000 .000000
 306  308 0 1   1 0  .0000000  .0001000   .000000  0     0     0    0    0  .00000  .000   .00000 .000000 .00000 .00000 .000000
 308  305 0 1   1 0  .0000000  .0001000   .000000  0     0     0    0    0  .00000  .000   .00000 .000000 .00000 .00000 .000000
 306  309 0 1   1 0  .0000000  .0001000   .000000  0     0     0    0    0  .00000  .000   .00000 .000000 .00000 .00000 .000000
 309  310 0 1   1 0  .0000000  .0001000   .000000  0     0     0    0    0  .00000  .000   .00000 .000000 .00000 .00000 .000000
 310  305 0 1   1 0  .0000000  .0001000   .000000  0     0     0    0    0  .00000  .000   .00000 .000000 .00000 .00000 .000000
 313  314 0 1   1 0  .0000000  .0001000   .000000  0     0     0    0    0  .00000  .000   .00000 .000000 .00000 .00000 .000000
 320  321 0 1   1 0  .0000000  .0001000   .000000  0     0     0    0    0  .00000  .000   .00000 .000000 .00000 .00000 .000000
 322  324 0 1   1 0  .0000000  .0001000   .000000  0     0     0    0    0  .00000  .000   .00000 .000000 .00000 .00000 .000000
 322  325 0 1   1 0  .0000000  .0001000   .000000  0     0     0    0    0  .00000  .000   .00000 .000000 .00000 .00000 .000000
 323  325 0 1   1 0  .0000000  .0001000   .000000  0     0     0    0    0  .00000  .000   .00000 .000000 .00000 .00000 .000000
 328  329 0 1   1 0  .0000000  .0001000   .000000  0     0     0    0    0  .00000  .000   .00000 .000000 .00000 .00000 .000000
 334  335 0 1   1 0  .0000000  .0001000   .000000  0     0     0    0    0  .00000  .000   .00000 .000000 .00000 .00000 .000000
 340  341 0 1   1 0  .0000000  .0001000   .000000  0     0     0    0    0  .00000  .000   .00000 .000000 .00000 .00000 .000000
 344  345 0 1   1 0  .0000000  .0001000   .000000  0     0     0    0    0  .00000  .000   .00000 .000000 .00000 .00000 .000000
  22  346 0 1   1 0  .0000000  .0001000   .000000  0     0     0    0    0  .00000  .000   .00000 .000000 .00000 .00000 .000000
  23  346 0 1   1 0  .0000000  .0001000   .000000  0     0     0    0    0  .00000  .000   .00000 .000000 .00000 .00000 .000000
  24  346 0 1   1 0  .0000000  .0001000   .000000  0     0     0    0    0  .00000  .000   .00000 .000000 .00000 .00000 .000000
  25  346 0 1   1 0  .0000000  .0001000   .000000  0     0     0    0    0  .00000  .000   .00000 .000000 .00000 .00000 .000000
 350  351 0 1   1 0  .0000000  .0001000   .000000  0     0     0    0    0  .00000  .000   .00000 .000000 .00000 .00000 .000000
 353  354 0 1   1 0  .0000000  .0001000   .000000  0     0     0    0    0  .00000  .000   .00000 .000000 .00000 .00000 .000000
 356  357 0 1   1 0  .0000000  .0001000   .000000  0     0     0    0    0  .00000  .000   .00000 .000000 .00000 .00000 .000000
 360  361 0 1   1 0  .0000000  .0001000   .000000  0     0     0    0    0  .00000  .000   .00000 .000000 .00000 .00000 .000000
 363  364 0 1   1 0  .0000000  .0001000   .000000  0     0     0    0    0  .00000  .000   .00000 .000000 .00000 .00000 .000000
 369  370 0 1   1 0  .0000000  .0001000   .000000  0     0     0    0    0  .00000  .000   .00000 .000000 .00000 .00000 .000000
 373  374 0 1   1 0  .0000000  .0001000   .000000  0     0     0    0    0  .00000  .000   .00000 .000000 .00000 .00000 .000000
 377  378 0 1   1 0  .0000000  .0001000   .000000  0     0     0    0    0  .00000  .000   .00000 .000000 .00000 .00000 .000000
 381  382 0 1   1 0  .0000000  .0001000   .000000  0     0     0    0    0  .00000  .000   .00000 .000000 .00000 .00000 .000000
 387  388 0 1   1 0  .0000000  .0001000   .000000  0     0     0    0    0  .00000  .000   .00000 .000000 .00000 .00000 .000000
 389  390 0 1   1 0  .0000000  .0001000   .000000  0     0     0    0    0  .00000  .000   .00000 .000000 .00000 .00000 .000000
 387  390 0 1   1 0  .0000000  .0001000   .000000  0     0     0    0    0  .00000  .000   .00000 .000000 .00000 .00000 .000000
 388  389 0 1   1 0  .0000000  .0001000   .000000  0     0     0    0    0  .00000  .000   .00000 .000000 .00000 .00000 .000000
 392  393 0 1   1 0  .0000000  .0001000   .000000  0     0     0    0    0  .00000  .000   .00000 .000000 .00000 .00000 .000000
 393  391 0 1   1 0  .0000000  .0001000   .000000  0     0     0    0    0  .00000  .000   .00000 .000000 .00000 .00000 .000000
 392  394 0 1   1 0  .0000000  .0001000   .000000  0     0     0    0    0  .00000  .000   .00000 .000000 .00000 .00000 .000000
 394  391 0 1   1 0  .0000000  .0001000   .000000  0     0     0    0    0  .00000  .000   .00000 .000000 .00000 .00000 .000000
 392  395 0 1   1 0  .0000000  .0001000   .000000  0     0     0    0    0  .00000  .000   .00000 .000000 .00000 .00000 .000000
 395  391 0 1   1 0  .0000000  .0001000   .000000  0     0     0    0    0  .00000  .000   .00000 .000000 .00000 .00000 .000000
 392  396 0 1   1 0  .0000000  .0001000   .000000  0     0     0    0    0  .00000  .000   .00000 .000000 .00000 .00000 .000000
 396  397 0 1   1 0  .0000000  .0001000   .000000  0     0     0    0    0  .00000  .000   .00000 .000000 .00000 .00000 .000000
 397  391 0 1   1 0  .0000000  .0001000   .000000  0     0     0    0    0  .00000  .000   .00000 .000000 .00000 .00000 .000000
 392  398 0 1   1 0  .0000000  .0001000   .000000  0     0     0    0    0  .00000  .000   .00000 .000000 .00000 .00000 .000000
 398  399 0 1   1 0  .0000000  .0001000   .000000  0     0     0    0    0  .00000  .000   .00000 .000000 .00000 .00000 .000000
 399  391 0 1   1 0  .0000000  .0001000   .000000  0     0     0    0    0  .00000  .000   .00000 .000000 .00000 .00000 .000000
  26  400 0 1   1 0  .0000000  .0001000   .000000  0     0     0    0    0  .00000  .000   .00000 .000000 .00000 .00000 .000000
  27  400 0 1   1 0  .0000000  .0001000   .000000  0     0     0    0    0  .00000  .000   .00000 .000000 .00000 .00000 .000000
 407  409 0 1   1 0  .0000000  .0001000   .000000  0     0     0    0    0  .00000  .000   .00000 .000000 .00000 .00000 .000000
 408  409 0 1   1 0  .0000000  .0001000   .000000  0     0     0    0    0  .00000  .000   .00000 .000000 .00000 .00000 .000000
 406  407 0 1   1 0  .0000000  .0001000   .000000  0     0     0    0    0  .00000  .000   .00000 .000000 .00000 .00000 .000000
 406  408 0 1   1 0  .0000000  .0001000   .000000  0     0     0    0    0  .00000  .000   .00000 .000000 .00000 .00000 .000000
 411  412 0 1   1 0  .0000000  .0001000   .000000  0     0     0    0    0  .00000  .000   .00000 .000000 .00000 .00000 .000000
 412  410 0 1   1 0  .0000000  .0001000   .000000  0     0     0    0    0  .00000  .000   .00000 .000000 .00000 .00000 .000000
 411  413 0 1   1 0  .0000000  .0001000   .000000  0     0     0    0    0  .00000  .000   .00000 .000000 .00000 .00000 .000000
 413  414 0 1   1 0  .0000000  .0001000   .000000  0     0     0    0    0  .00000  .000   .00000 .000000 .00000 .00000 .000000
 414  410 0 1   1 0  .0000000  .0001000   .000000  0     0     0    0    0  .00000  .000   .00000 .000000 .00000 .00000 .000000
 411  415 0 1   1 0  .0000000  .0001000   .000000  0     0     0    0    0  .00000  .000   .00000 .000000 .00000 .00000 .000000
 415  416 0 1   1 0  .0000000  .0001000   .000000  0     0     0    0    0  .00000  .000   .00000 .000000 .00000 .00000 .000000
 416  410 0 1   1 0  .0000000  .0001000   .000000  0     0     0    0    0  .00000  .000   .00000 .000000 .00000 .00000 .000000
 411  417 0 1   1 0  .0000000  .0001000   .000000  0     0     0    0    0  .00000  .000   .00000 .000000 .00000 .00000 .000000
 417  418 0 1   1 0  .0000000  .0001000   .000000  0     0     0    0    0  .00000  .000   .00000 .000000 .00000 .00000 .000000
 418  410 0 1   1 0  .0000000  .0001000   .000000  0     0     0    0    0  .00000  .000   .00000 .000000 .00000 .00000 .000000
 421  422 0 1   1 0  .0000000  .0001000   .000000  0     0     0    0    0  .00000  .000   .00000 .000000 .00000 .00000 .000000
 425  426 0 1   1 0  .0000000  .0001000   .000000  0     0     0    0    0  .00000  .000   .00000 .000000 .00000 .00000 .000000
 429  430 0 1   1 0  .0000000  .0001000   .000000  0     0     0    0    0  .00000  .000   .00000 .000000 .00000 .00000 .000000
 433  434 0 1   1 0  .0000000  .0001000   .000000  0     0     0    0    0  .00000  .000   .00000 .000000 .00000 .00000 .000000
 436  437 0 1   1 0  .0000000  .0001000   .000000  0     0     0    0    0  .00000  .000   .00000 .000000 .00000 .00000 .000000
 440  441 0 1   1 0  .0000000  .0001000   .000000  0     0     0    0    0  .00000  .000   .00000 .000000 .00000 .00000 .000000
 444  445 0 1   1 0  .0000000  .0001000   .000000  0     0     0    0    0  .00000  .000   .00000 .000000 .00000 .00000 .000000
  28  446 0 1   1 0  .0000000  .0001000   .000000  0     0     0    0    0  .00000  .000   .00000 .000000 .00000 .00000 .000000
  29  446 0 1   1 0  .0000000  .0001000   .000000  0     0     0    0    0  .00000  .000   .00000 .000000 .00000 .00000 .000000
  30  446 0 1   1 0  .0000000  .0001000   .000000  0     0     0    0    0  .00000  .000   .00000 .000000 .00000 .00000 .000000
  31  446 0 1   1 0  .0000000  .0001000   .000000  0     0     0    0    0  .00000  .000   .00000 .000000 .00000 .00000 .000000
  32  446 0 1   1 0  .0000000  .0001000   .000000  0     0     0    0    0  .00000  .000   .00000 .000000 .00000 .00000 .000000
  33  446 0 1   1 0  .0000000  .0001000   .000000  0     0     0    0    0  .00000  .000   .00000 .000000 .00000 .00000 .000000
  34  447 0 1   1 0  .0000000  .0001000   .000000  0     0     0    0    0  .00000  .000   .00000 .000000 .00000 .00000 .000000
  35  447 0 1   1 0  .0000000  .0001000   .000000  0     0     0    0    0  .00000  .000   .00000 .000000 .00000 .00000 .000000
  36  447 0 1   1 0  .0000000  .0001000   .000000  0     0     0    0    0  .00000  .000   .00000 .000000 .00000 .00000 .000000
  37  447 0 1   1 0  .0000000  .0001000   .000000  0     0     0    0    0  .00000  .000   .00000 .000000 .00000 .00000 .000000
  38  447 0 1   1 0  .0000000  .0001000   .000000  0     0     0    0    0  .00000  .000   .00000 .000000 .00000 .00000 .000000
  39  447 0 1   1 0  .0000000  .0001000   .000000  0     0     0    0    0  .00000  .000   .00000 .000000 .00000 .00000 .000000
  40  447 0 1   1 0  .0000000  .0001000   .000000  0     0     0    0    0  .00000  .000   .00000 .000000 .00000 .00000 .000000
  41  447 0 1   1 0  .0000000  .0001000   .000000  0     0     0    0    0  .00000  .000   .00000 .000000 .00000 .00000 .000000
  42  447 0 1   1 0  .0000000  .0001000   .000000  0     0     0    0    0  .00000  .000   .00000 .000000 .00000 .00000 .000000
 452  453 0 1   1 0  .0000000  .0001000   .000000  0     0     0    0    0  .00000  .000   .00000 .000000 .00000 .00000 .000000
 457  458 0 1   1 0  .0000000  .0001000   .000000  0     0     0    0    0  .00000  .000   .00000 .000000 .00000 .00000 .000000
 461  462 0 1   1 0  .0000000  .0001000   .000000  0     0     0    0    0  .00000  .000   .00000 .000000 .00000 .00000 .000000
 465  466 0 1   1 0  .0000000  .0001000   .000000  0     0     0    0    0  .00000  .000   .00000 .000000 .00000 .00000 .000000
 469  470 0 1   1 0  .0000000  .0001000   .000000  0     0     0    0    0  .00000  .000   .00000 .000000 .00000 .00000 .000000
 473  474 0 1   1 0  .0000000  .0001000   .000000  0     0     0    0    0  .00000  .000   .00000 .000000 .00000 .00000 .000000
 478  479 0 1   1 0  .0000000  .0001000   .000000  0     0     0    0    0  .00000  .000   .00000 .000000 .00000 .00000 .000000
 482  483 0 1   1 0  .0000000  .0001000   .000000  0     0     0    0    0  .00000  .000   .00000 .000000 .00000 .00000 .000000
 488  489 0 1   1 0  .0000000  .0001000   .000000  0     0     0    0    0  .00000  .000   .00000 .000000 .00000 .00000 .000000
 492  493 0 1   1 0  .0000000  .0001000   .000000  0     0     0    0    0  .00000  .000   .00000 .000000 .00000 .00000 .000000
 494  495 0 1   1 0  .0000000  .0001000   .000000  0     0     0    0    0  .00000  .000   .00000 .000000 .00000 .00000 .000000
 497  498 0 1   1 0  .0000000  .0001000   .000000  0     0     0    0    0  .00000  .000   .00000 .000000 .00000 .00000 .000000
 500  502 0 1   1 0  .0000000  .0001000   .000000  0     0     0    0    0  .00000  .000   .00000 .000000 .00000 .00000 .000000
 499  501 0 1   1 0  .0000000  .0001000   .000000  0     0     0    0    0  .00000  .000   .00000 .000000 .00000 .00000 .000000
 499  502 0 1   1 0  .0000000  .0001000   .000000  0     0     0    0    0  .00000  .000   .00000 .000000 .00000 .00000 .000000
 500  501 0 1   1 0  .0000000  .0001000   .000000  0     0     0    0    0  .00000  .000   .00000 .000000 .00000 .00000 .000000
 507  508 0 1   1 0  .0000000  .0001000   .000000  0     0     0    0    0  .00000  .000   .00000 .000000 .00000 .00000 .000000
 508  509 0 1   1 0  .0000000  .0001000   .000000  0     0     0    0    0  .00000  .000   .00000 .000000 .00000 .00000 .000000
 506  507 0 1   1 0  .0000000  .0001000   .000000  0     0     0    0    0  .00000  .000   .00000 .000000 .00000 .00000 .000000
 506  509 0 1   1 0  .0000000  .0001000   .000000  0     0     0    0    0  .00000  .000   .00000 .000000 .00000 .00000 .000000
 511  512 0 1   1 0  .0000000  .0001000   .000000  0     0     0    0    0  .00000  .000   .00000 .000000 .00000 .00000 .000000
 512  510 0 1   1 0  .0000000  .0001000   .000000  0     0     0    0    0  .00000  .000   .00000 .000000 .00000 .00000 .000000
 511  513 0 1   1 0  .0000000  .0001000   .000000  0     0     0    0    0  .00000  .000   .00000 .000000 .00000 .00000 .000000
 513  510 0 1   1 0  .0000000  .0001000   .000000  0     0     0    0    0  .00000  .000   .00000 .000000 .00000 .00000 .000000
 511  514 0 1   1 0  .0000000  .0001000   .000000  0     0     0    0    0  .00000  .000   .00000 .000000 .00000 .00000 .000000
 514  515 0 1   1 0  .0000000  .0001000   .000000  0     0     0    0    0  .00000  .000   .00000 .000000 .00000 .00000 .000000
 515  510 0 1   1 0  .0000000  .0001000   .000000  0     0     0    0    0  .00000  .000   .00000 .000000 .00000 .00000 .000000
 511  516 0 1   1 0  .0000000  .0001000   .000000  0     0     0    0    0  .00000  .000   .00000 .000000 .00000 .00000 .000000
 516  517 0 1   1 0  .0000000  .0001000   .000000  0     0     0    0    0  .00000  .000   .00000 .000000 .00000 .00000 .000000
 517  510 0 1   1 0  .0000000  .0001000   .000000  0     0     0    0    0  .00000  .000   .00000 .000000 .00000 .00000 .000000
 511  518 0 1   1 0  .0000000  .0001000   .000000  0     0     0    0    0  .00000  .000   .00000 .000000 .00000 .00000 .000000
 518  519 0 1   1 0  .0000000  .0001000   .000000  0     0     0    0    0  .00000  .000   .00000 .000000 .00000 .00000 .000000
 519  510 0 1   1 0  .0000000  .0001000   .000000  0     0     0    0    0  .00000  .000   .00000 .000000 .00000 .00000 .000000
  87   88 0 1   1 0  .0000000  .0001000   .000000  0     0     0    0    0  .00000  .000   .00000 .000000 .00000 .00000 .000000
 529  530 0 1   1 0  .0000000  .0001000   .000000  0     0     0    0    0  .00000  .000   .00000 .000000 .00000 .00000 .000000
 530  528 0 1   1 0  .0000000  .0001000   .000000  0     0     0    0    0  .00000  .000   .00000 .000000 .00000 .00000 .000000
 529  531 0 1   1 0  .0000000  .0001000   .000000  0     0     0    0    0  .00000  .000   .00000 .000000 .00000 .00000 .000000
 531  532 0 1   1 0  .0000000  .0001000   .000000  0     0     0    0    0  .00000  .000   .00000 .000000 .00000 .00000 .000000
 532  528 0 1   1 0  .0000000  .0001000   .000000  0     0     0    0    0  .00000  .000   .00000 .000000 .00000 .00000 .000000
 529  533 0 1   1 0  .0000000  .0001000   .000000  0     0     0    0    0  .00000  .000   .00000 .000000 .00000 .00000 .000000
 533  534 0 1   1 0  .0000000  .0001000   .000000  0     0     0    0    0  .00000  .000   .00000 .000000 .00000 .00000 .000000
 534  528 0 1   1 0  .0000000  .0001000   .000000  0     0     0    0    0  .00000  .000   .00000 .000000 .00000 .00000 .000000
 529  535 0 1   1 0  .0000000  .0001000   .000000  0     0     0    0    0  .00000  .000   .00000 .000000 .00000 .00000 .000000
 535  536 0 1   1 0  .0000000  .0001000   .000000  0     0     0    0    0  .00000  .000   .00000 .000000 .00000 .00000 .000000
 536  528 0 1   1 0  .0000000  .0001000   .000000  0     0     0    0    0  .00000  .000   .00000 .000000 .00000 .00000 .000000
 529  537 0 1   1 0  .0000000  .0001000   .000000  0     0     0    0    0  .00000  .000   .00000 .000000 .00000 .00000 .000000
 537  538 0 1   1 0  .0000000  .0001000   .000000  0     0     0    0    0  .00000  .000   .00000 .000000 .00000 .00000 .000000
 538  528 0 1   1 0  .0000000  .0001000   .000000  0     0     0    0    0  .00000  .000   .00000 .000000 .00000 .00000 .000000
 539  540 0 1   1 0  .0000000  .0001000   .000000  0     0     0    0    0  .00000  .000   .00000 .000000 .00000 .00000 .000000
 541  542 0 1   1 0  .0000000  .0001000   .000000  0     0     0    0    0  .00000  .000   .00000 .000000 .00000 .00000 .000000
 550  551 0 1   1 0  .0000000  .0001000   .000000  0     0     0    0    0  .00000  .000   .00000 .000000 .00000 .00000 .000000
 552  553 0 1   1 0  .0000000  .0001000   .000000  0     0     0    0    0  .00000  .000   .00000 .000000 .00000 .00000 .000000
 550  553 0 1   1 0  .0000000  .0001000   .000000  0     0     0    0    0  .00000  .000   .00000 .000000 .00000 .00000 .000000
 551  552 0 1   1 0  .0000000  .0001000   .000000  0     0     0    0    0  .00000  .000   .00000 .000000 .00000 .00000 .000000
 555  556 0 1   1 0  .0000000  .0001000   .000000  0     0     0    0    0  .00000  .000   .00000 .000000 .00000 .00000 .000000
 556  554 0 1   1 0  .0000000  .0001000   .000000  0     0     0    0    0  .00000  .000   .00000 .000000 .00000 .00000 .000000
 557  558 0 1   1 0  .0000000  .0001000   .000000  0     0     0    0    0  .00000  .000   .00000 .000000 .00000 .00000 .000000
 558  554 0 1   1 0  .0000000  .0001000   .000000  0     0     0    0    0  .00000  .000   .00000 .000000 .00000 .00000 .000000
 555  559 0 1   1 0  .0000000  .0001000   .000000  0     0     0    0    0  .00000  .000   .00000 .000000 .00000 .00000 .000000
 559  560 0 1   1 0  .0000000  .0001000   .000000  0     0     0    0    0  .00000  .000   .00000 .000000 .00000 .00000 .000000
 560  554 0 1   1 0  .0000000  .0001000   .000000  0     0     0    0    0  .00000  .000   .00000 .000000 .00000 .00000 .000000
 555  561 0 1   1 0  .0000000  .0001000   .000000  0     0     0    0    0  .00000  .000   .00000 .000000 .00000 .00000 .000000
 561  562 0 1   1 0  .0000000  .0001000   .000000  0     0     0    0    0  .00000  .000   .00000 .000000 .00000 .00000 .000000
 562  554 0 1   1 0  .0000000  .0001000   .000000  0     0     0    0    0  .00000  .000   .00000 .000000 .00000 .00000 .000000
 555  563 0 1   1 0  .0000000  .0001000   .000000  0     0     0    0    0  .00000  .000   .00000 .000000 .00000 .00000 .000000
 563  564 0 1   1 0  .0000000  .0001000   .000000  0     0     0    0    0  .00000  .000   .00000 .000000 .00000 .00000 .000000
 564  554 0 1   1 0  .0000000  .0001000   .000000  0     0     0    0    0  .00000  .000   .00000 .000000 .00000 .00000 .000000
 570  571 0 1   1 0  .0000000  .0001000   .000000  0     0     0    0    0  .00000  .000   .00000 .000000 .00000 .00000 .000000
 574  575 0 1   1 0  .0000000  .0001000   .000000  0     0     0    0    0  .00000  .000   .00000 .000000 .00000 .00000 .000000
 578  579 0 1   1 0  .0000000  .0001000   .000000  0     0     0    0    0  .00000  .000   .00000 .000000 .00000 .00000 .000000
 582  583 0 1   1 0  .0000000  .0001000   .000000  0     0     0    0    0  .00000  .000   .00000 .000000 .00000 .00000 .000000
 588  589 0 1   1 0  .0000000  .0001000   .000000  0     0     0    0    0  .00000  .000   .00000 .000000 .00000 .00000 .000000
...
-999
LOSS ZONES FOLLOWS   0 ITEMS
-99
INTERCHANGE DATA FOLLOWS      0 ITEMS
-9
TIE LINES FOLLOWS             0ITEMS
-999
END OF DATA